1nap
 OpenBabel03172610333D

 18 19  0  0  0  0  0  0  0  0999 V2000
    0.0000    0.0000    0.0000 H   0  0  0  0  0  0  0  0  0  0  0  0
   -1.0600    0.0000    0.0000 C   0  0  0  0  0  0  0  0  0  0  0  0
   -1.7500    0.8500    0.8500 C   0  0  0  0  0  0  0  0  0  0  0  0
   -1.2200    1.4900    1.4900 H   0  0  0  0  0  0  0  0  0  0  0  0
   -3.1300    0.8400    0.8400 C   0  0  0  0  0  0  0  0  0  0  0  0
   -3.6600    1.4900    1.4900 H   0  0  0  0  0  0  0  0  0  0  0  0
   -3.8200    0.0000    0.0000 C   0  0  0  0  0  0  0  0  0  0  0  0
   -4.8800    0.0000    0.0000 H   0  0  0  0  0  0  0  0  0  0  0  0
   -3.1300   -0.8500   -0.8500 C   0  0  0  0  0  0  0  0  0  0  0  0
   -1.7500   -0.8500   -0.8500 C   0  0  0  0  0  0  0  0  0  0  0  0
   -1.0600   -1.6900   -1.6900 C   0  0  0  0  0  0  0  0  0  0  0  0
    0.0000   -1.6900   -1.6900 H   0  0  0  0  0  0  0  0  0  0  0  0
   -1.7500   -2.5400   -2.5400 C   0  0  0  0  0  0  0  0  0  0  0  0
   -1.2200   -3.1800   -3.1800 H   0  0  0  0  0  0  0  0  0  0  0  0
   -3.1300   -2.5400   -2.5400 C   0  0  0  0  0  0  0  0  0  0  0  0
   -3.6600   -3.1800   -3.1800 H   0  0  0  0  0  0  0  0  0  0  0  0
   -3.8200   -1.6900   -1.6900 C   0  0  0  0  0  0  0  0  0  0  0  0
   -4.8800   -1.6900   -1.6900 H   0  0  0  0  0  0  0  0  0  0  0  0
  2  1  1  0  0  0  0
  2  3  1  0  0  0  0
  3  4  1  0  0  0  0
  5  3  2  0  0  0  0
  5  6  1  0  0  0  0
  7  5  1  0  0  0  0
  8  7  1  0  0  0  0
  9 10  1  0  0  0  0
  9  7  2  0  0  0  0
 10  2  2  0  0  0  0
 11 10  1  0  0  0  0
 12 11  1  0  0  0  0
 13 15  1  0  0  0  0
 13 11  2  0  0  0  0
 14 13  1  0  0  0  0
 15 17  2  0  0  0  0
 16 15  1  0  0  0  0
 17  9  1  0  0  0  0
 18 17  1  0  0  0  0
M  END
$$$$
35diMePh.log
 OpenBabel03172610333D

 18 18  0  0  0  0  0  0  0  0999 V2000
    0.0022    2.8638   -0.0008 H   0  0  0  0  0  0  0  0  0  0  0  0
    0.0019    1.8038   -0.0005 C   0  0  0  0  0  0  0  0  0  0  0  0
    1.2038    1.1135   -0.0003 C   0  0  0  0  0  0  0  0  0  0  0  0
    2.1091    1.6432   -0.0004 H   0  0  0  0  0  0  0  0  0  0  0  0
    1.1893   -0.2665    0.0001 C   0  0  0  0  0  0  0  0  0  0  0  0
    2.4902   -1.0169    0.0003 C   0  0  0  0  0  0  0  0  0  0  0  0
    2.8084   -1.1967    1.0398 H   0  0  0  0  0  0  0  0  0  0  0  0
    2.3627   -1.9770   -0.5227 H   0  0  0  0  0  0  0  0  0  0  0  0
    3.2611   -0.4272   -0.5161 H   0  0  0  0  0  0  0  0  0  0  0  0
    0.0012   -0.9562    0.0003 C   0  0  0  0  0  0  0  0  0  0  0  0
    0.0009   -2.0162    0.0006 H   0  0  0  0  0  0  0  0  0  0  0  0
   -1.2007   -0.2659    0.0001 C   0  0  0  0  0  0  0  0  0  0  0  0
   -2.4878   -1.0155    0.0003 C   0  0  0  0  0  0  0  0  0  0  0  0
   -2.8061   -1.1952    1.0398 H   0  0  0  0  0  0  0  0  0  0  0  0
   -3.2584   -0.4255   -0.5161 H   0  0  0  0  0  0  0  0  0  0  0  0
   -2.3608   -1.9757   -0.5227 H   0  0  0  0  0  0  0  0  0  0  0  0
   -1.2003    1.1141   -0.0003 C   0  0  0  0  0  0  0  0  0  0  0  0
   -2.1053    1.6444   -0.0004 H   0  0  0  0  0  0  0  0  0  0  0  0
  1  2  1  0  0  0  0
  2 17  2  0  0  0  0
  2  3  1  0  0  0  0
  3  5  2  0  0  0  0
  4  3  1  0  0  0  0
  5 10  1  0  0  0  0
  5  6  1  0  0  0  0
  6  7  1  0  0  0  0
  8  6  1  0  0  0  0
  9  6  1  0  0  0  0
 10 11  1  0  0  0  0
 12 10  2  0  0  0  0
 12 13  1  0  0  0  0
 13 14  1  0  0  0  0
 15 13  1  0  0  0  0
 16 13  1  0  0  0  0
 17 12  1  0  0  0  0
 18 17  1  0  0  0  0
M  END
$$$$
4ClPh.log
 OpenBabel03172610333D

 12 12  0  0  0  0  0  0  0  0999 V2000
    0.0015   -3.3066   -0.0000 H   0  0  0  0  0  0  0  0  0  0  0  0
    0.0015   -2.2466   -0.0000 C   0  0  0  0  0  0  0  0  0  0  0  0
    1.2035   -1.5566   -0.0000 C   0  0  0  0  0  0  0  0  0  0  0  0
    2.1086   -2.0865   -0.0000 H   0  0  0  0  0  0  0  0  0  0  0  0
    1.1894   -0.1766   -0.0000 C   0  0  0  0  0  0  0  0  0  0  0  0
    2.1086    0.3534   -0.0000 H   0  0  0  0  0  0  0  0  0  0  0  0
    0.0015    0.5134   -0.0000 C   0  0  0  0  0  0  0  0  0  0  0  0
    0.0015    2.2334   -0.0000 Cl  0  0  0  0  0  0  0  0  0  0  0  0
   -1.2006   -0.1766    0.0000 C   0  0  0  0  0  0  0  0  0  0  0  0
   -2.1057    0.3534    0.0000 H   0  0  0  0  0  0  0  0  0  0  0  0
   -1.2006   -1.5566    0.0000 C   0  0  0  0  0  0  0  0  0  0  0  0
   -2.1057   -2.0865    0.0000 H   0  0  0  0  0  0  0  0  0  0  0  0
  1  2  1  0  0  0  0
  2  3  2  0  0  0  0
  2 11  1  0  0  0  0
  3  4  1  0  0  0  0
  3  5  1  0  0  0  0
  5  6  1  0  0  0  0
  5  7  2  0  0  0  0
  7  8  1  0  0  0  0
  7  9  1  0  0  0  0
  9 10  1  0  0  0  0
  9 11  2  0  0  0  0
 11 12  1  0  0  0  0
M  END
$$$$
4MeOPh.log
 OpenBabel03172610333D

 16 16  0  0  0  0  0  0  0  0999 V2000
   -0.2246   -3.2924   -0.0000 H   0  0  0  0  0  0  0  0  0  0  0  0
   -0.2246   -2.2324   -0.0000 C   0  0  0  0  0  0  0  0  0  0  0  0
    0.9775   -1.5424   -0.0000 C   0  0  0  0  0  0  0  0  0  0  0  0
    1.8826   -2.0724   -0.0000 H   0  0  0  0  0  0  0  0  0  0  0  0
    0.9634   -0.1624   -0.0000 C   0  0  0  0  0  0  0  0  0  0  0  0
    1.8826    0.3676    0.0000 H   0  0  0  0  0  0  0  0  0  0  0  0
   -0.2246    0.5276    0.0000 C   0  0  0  0  0  0  0  0  0  0  0  0
   -0.2246    1.9176    0.0000 O   0  0  0  0  0  0  0  0  0  0  0  0
    1.1189    2.4076    0.0000 C   0  0  0  0  0  0  0  0  0  0  0  0
    1.1048    3.5076    0.0000 H   0  0  0  0  0  0  0  0  0  0  0  0
    1.6351    2.0476    0.8980 H   0  0  0  0  0  0  0  0  0  0  0  0
    1.6351    2.0476   -0.8980 H   0  0  0  0  0  0  0  0  0  0  0  0
   -1.4266   -0.1624   -0.0000 C   0  0  0  0  0  0  0  0  0  0  0  0
   -2.3317    0.3676    0.0000 H   0  0  0  0  0  0  0  0  0  0  0  0
   -1.4266   -1.5424   -0.0000 C   0  0  0  0  0  0  0  0  0  0  0  0
   -2.3317   -2.0724   -0.0000 H   0  0  0  0  0  0  0  0  0  0  0  0
  2  3  2  0  0  0  0
  2  1  1  0  0  0  0
  2 15  1  0  0  0  0
  3  4  1  0  0  0  0
  3  5  1  0  0  0  0
  5  6  1  0  0  0  0
  5  7  2  0  0  0  0
  7  8  1  0  0  0  0
  7 13  1  0  0  0  0
  8  9  1  0  0  0  0
  9 10  1  0  0  0  0
  9 11  1  0  0  0  0
 12  9  1  0  0  0  0
 13 14  1  0  0  0  0
 13 15  2  0  0  0  0
 16 15  1  0  0  0  0
M  END
$$$$
4MePh.log
 OpenBabel03172610333D

 15 15  0  0  0  0  0  0  0  0999 V2000
    2.9318   -0.0009    0.0000 H   0  0  0  0  0  0  0  0  0  0  0  0
    1.8718   -0.0012    0.0000 C   0  0  0  0  0  0  0  0  0  0  0  0
    1.1821   -1.2035    0.0000 C   0  0  0  0  0  0  0  0  0  0  0  0
    1.7124   -2.1084    0.0000 H   0  0  0  0  0  0  0  0  0  0  0  0
   -0.1979   -1.1897    0.0000 C   0  0  0  0  0  0  0  0  0  0  0  0
   -0.7276   -2.1091    0.0000 H   0  0  0  0  0  0  0  0  0  0  0  0
   -0.8882   -0.0019    0.0000 C   0  0  0  0  0  0  0  0  0  0  0  0
   -2.3882   -0.0024    0.0000 C   0  0  0  0  0  0  0  0  0  0  0  0
   -2.7582   -0.0024    1.0324 H   0  0  0  0  0  0  0  0  0  0  0  0
   -2.7584    0.8956   -0.5162 H   0  0  0  0  0  0  0  0  0  0  0  0
   -2.7580   -0.9005   -0.5162 H   0  0  0  0  0  0  0  0  0  0  0  0
   -0.1985    1.2003    0.0000 C   0  0  0  0  0  0  0  0  0  0  0  0
   -0.7288    2.1053    0.0000 H   0  0  0  0  0  0  0  0  0  0  0  0
    1.1815    1.2007    0.0000 C   0  0  0  0  0  0  0  0  0  0  0  0
    1.7112    2.1059    0.0000 H   0  0  0  0  0  0  0  0  0  0  0  0
  2  1  1  0  0  0  0
  2 14  1  0  0  0  0
  3  4  1  0  0  0  0
  3  5  1  0  0  0  0
  3  2  2  0  0  0  0
  5  6  1  0  0  0  0
  5  7  2  0  0  0  0
  7  8  1  0  0  0  0
  7 12  1  0  0  0  0
  8  9  1  0  0  0  0
 10  8  1  0  0  0  0
 11  8  1  0  0  0  0
 12 13  1  0  0  0  0
 12 14  2  0  0  0  0
 15 14  1  0  0  0  0
M  END
$$$$
Ad.log
 OpenBabel03172610333D

 26 28  0  0  1  0  0  0  0  0999 V2000
   -2.1558   -1.5232   -0.0000 H   0  0  0  0  0  0  0  0  0  0  0  0
   -1.2576   -0.8881   -0.0000 C   0  0  2  0  0  0  0  0  0  0  0  0
   -1.2576   -0.0048    1.2587 C   0  0  0  0  0  0  0  0  0  0  0  0
   -2.1558    0.6419    1.2587 H   0  0  0  0  0  0  0  0  0  0  0  0
   -1.2535   -0.6341    2.1567 H   0  0  0  0  0  0  0  0  0  0  0  0
   -0.0002    0.8843    1.2587 C   0  0  1  0  0  0  0  0  0  0  0  0
   -0.0002    1.5252    2.1496 H   0  0  0  0  0  0  0  0  0  0  0  0
   -0.0002   -1.7830   -0.0000 C   0  0  0  0  0  0  0  0  0  0  0  0
    0.0039   -2.4123    0.8980 H   0  0  0  0  0  0  0  0  0  0  0  0
    0.0039   -2.4123   -0.8980 H   0  0  0  0  0  0  0  0  0  0  0  0
    1.2572   -0.8939    0.0000 C   0  0  2  0  0  0  0  0  0  0  0  0
    1.2572    0.0068    1.2587 C   0  0  0  0  0  0  0  0  0  0  0  0
    1.2572   -0.6341    2.1496 H   0  0  0  0  0  0  0  0  0  0  0  0
    2.1553    0.6419    1.2587 H   0  0  0  0  0  0  0  0  0  0  0  0
    2.1553   -1.5232    0.0000 H   0  0  0  0  0  0  0  0  0  0  0  0
    1.2572    0.0068   -1.2587 C   0  0  0  0  0  0  0  0  0  0  0  0
    2.1553    0.6419   -1.2587 H   0  0  0  0  0  0  0  0  0  0  0  0
    1.2572   -0.6341   -2.1496 H   0  0  0  0  0  0  0  0  0  0  0  0
   -0.0002    0.8843   -1.2587 C   0  0  2  0  0  0  0  0  0  0  0  0
   -0.0002    1.7850    0.0000 C   0  0  0  0  0  0  0  0  0  0  0  0
    0.8979    2.4201    0.0000 H   0  0  0  0  0  0  0  0  0  0  0  0
   -0.8984    2.4143    0.0000 H   0  0  0  0  0  0  0  0  0  0  0  0
   -0.0002    1.5252   -2.1496 H   0  0  0  0  0  0  0  0  0  0  0  0
   -1.2576   -0.0048   -1.2587 C   0  0  0  0  0  0  0  0  0  0  0  0
   -2.1558    0.6419   -1.2587 H   0  0  0  0  0  0  0  0  0  0  0  0
   -1.2535   -0.6341   -2.1567 H   0  0  0  0  0  0  0  0  0  0  0  0
  2  1  1  1  0  0  0
  2  8  1  0  0  0  0
  2  3  1  0  0  0  0
  3  4  1  0  0  0  0
  3  5  1  0  0  0  0
  6 12  1  0  0  0  0
  6  3  1  0  0  0  0
  6  7  1  1  0  0  0
  8  9  1  0  0  0  0
 10  8  1  0  0  0  0
 11 15  1  1  0  0  0
 11  8  1  0  0  0  0
 11 12  1  0  0  0  0
 12 13  1  0  0  0  0
 14 12  1  0  0  0  0
 16 11  1  0  0  0  0
 17 16  1  0  0  0  0
 18 16  1  0  0  0  0
 19 23  1  6  0  0  0
 19 16  1  0  0  0  0
 19 20  1  0  0  0  0
 20 21  1  0  0  0  0
 20  6  1  0  0  0  0
 22 20  1  0  0  0  0
 24 19  1  0  0  0  0
 24 25  1  0  0  0  0
 24  2  1  0  0  0  0
 26 24  1  0  0  0  0
M  END
$$$$
Bn.log
 OpenBabel03172610333D

 15 15  0  0  0  0  0  0  0  0999 V2000
    2.7552   -0.0028    1.0374 H   0  0  0  0  0  0  0  0  0  0  0  0
    2.3886   -0.0022    0.0003 C   0  0  0  0  0  0  0  0  0  0  0  0
    2.7534    0.8952   -0.5206 H   0  0  0  0  0  0  0  0  0  0  0  0
    2.7505   -0.9008   -0.5206 H   0  0  0  0  0  0  0  0  0  0  0  0
    0.8886    0.0003    0.0001 C   0  0  0  0  0  0  0  0  0  0  0  0
    0.2006    1.2034    0.0000 C   0  0  0  0  0  0  0  0  0  0  0  0
    0.7354    2.1147    0.0024 H   0  0  0  0  0  0  0  0  0  0  0  0
   -1.1795    1.1916   -0.0001 C   0  0  0  0  0  0  0  0  0  0  0  0
   -1.7113    2.1187   -0.0025 H   0  0  0  0  0  0  0  0  0  0  0  0
   -1.8714    0.0047   -0.0002 C   0  0  0  0  0  0  0  0  0  0  0  0
   -2.9347    0.0065    0.0044 H   0  0  0  0  0  0  0  0  0  0  0  0
   -1.1833   -1.1985   -0.0001 C   0  0  0  0  0  0  0  0  0  0  0  0
   -1.7182   -2.1098   -0.0025 H   0  0  0  0  0  0  0  0  0  0  0  0
    0.1966   -1.2007    0.0000 C   0  0  0  0  0  0  0  0  0  0  0  0
    0.7285   -2.1137    0.0024 H   0  0  0  0  0  0  0  0  0  0  0  0
  2  1  1  0  0  0  0
  3  2  1  0  0  0  0
  4  2  1  0  0  0  0
  5  2  1  0  0  0  0
  6  5  1  0  0  0  0
  6  7  1  0  0  0  0
  8  6  2  0  0  0  0
  9  8  1  0  0  0  0
 10 12  2  0  0  0  0
 10  8  1  0  0  0  0
 10 11  1  0  0  0  0
 12 14  1  0  0  0  0
 13 12  1  0  0  0  0
 14  5  2  0  0  0  0
 14 15  1  0  0  0  0
M  END
$$$$
CEt3.log
 OpenBabel03172610333D

 23 22  0  0  0  0  0  0  0  0999 V2000
    0.3594    0.5050    1.5241 H   0  0  0  0  0  0  0  0  0  0  0  0
    0.1538    0.0295    0.5538 C   0  0  0  0  0  0  0  0  0  0  0  0
   -0.9734   -1.0109    0.7242 C   0  0  0  0  0  0  0  0  0  0  0  0
   -0.6605   -1.7785    1.4422 H   0  0  0  0  0  0  0  0  0  0  0  0
   -1.8830   -0.5131    1.0812 H   0  0  0  0  0  0  0  0  0  0  0  0
   -1.2612   -1.6766   -0.6343 C   0  0  0  0  0  0  0  0  0  0  0  0
   -2.0617   -2.4176   -0.5210 H   0  0  0  0  0  0  0  0  0  0  0  0
   -1.5758   -0.9043   -1.3655 H   0  0  0  0  0  0  0  0  0  0  0  0
   -0.3437   -2.1796   -1.0016 H   0  0  0  0  0  0  0  0  0  0  0  0
   -0.2874    1.1017   -0.4563 C   0  0  0  0  0  0  0  0  0  0  0  0
    0.5212    1.8464   -0.5844 H   0  0  0  0  0  0  0  0  0  0  0  0
   -0.4929    0.6262   -1.4267 H   0  0  0  0  0  0  0  0  0  0  0  0
   -1.5596    1.8029    0.0478 C   0  0  0  0  0  0  0  0  0  0  0  0
   -1.8744    2.5662   -0.6790 H   0  0  0  0  0  0  0  0  0  0  0  0
   -2.3603    1.0529    0.1655 H   0  0  0  0  0  0  0  0  0  0  0  0
   -1.3540    2.2784    1.0182 H   0  0  0  0  0  0  0  0  0  0  0  0
    1.4260   -0.6717    0.0497 C   0  0  0  0  0  0  0  0  0  0  0  0
    1.7389   -1.4393    0.7676 H   0  0  0  0  0  0  0  0  0  0  0  0
    1.2205   -1.1472   -0.9207 H   0  0  0  0  0  0  0  0  0  0  0  0
    2.5532    0.3687   -0.1208 C   0  0  0  0  0  0  0  0  0  0  0  0
    3.4609   -0.1334   -0.4865 H   0  0  0  0  0  0  0  0  0  0  0  0
    2.2384    1.1319   -0.8476 H   0  0  0  0  0  0  0  0  0  0  0  0
    2.7588    0.8441    0.8496 H   0  0  0  0  0  0  0  0  0  0  0  0
  2  3  1  0  0  0  0
  2  1  1  0  0  0  0
  3  5  1  0  0  0  0
  3  4  1  0  0  0  0
  6  7  1  0  0  0  0
  6  3  1  0  0  0  0
  8  6  1  0  0  0  0
  9  6  1  0  0  0  0
 10 13  1  0  0  0  0
 10  2  1  0  0  0  0
 11 10  1  0  0  0  0
 12 10  1  0  0  0  0
 13 15  1  0  0  0  0
 13 16  1  0  0  0  0
 14 13  1  0  0  0  0
 17  2  1  0  0  0  0
 17 18  1  0  0  0  0
 19 17  1  0  0  0  0
 20 17  1  0  0  0  0
 20 23  1  0  0  0  0
 21 20  1  0  0  0  0
 22 20  1  0  0  0  0
M  END
$$$$
CH2iPr.log
 OpenBabel03172610333D

 14 13  0  0  0  0  0  0  0  0999 V2000
   -1.7982   -1.2075   -0.2614 H   0  0  0  0  0  0  0  0  0  0  0  0
   -1.4337   -0.2371    0.1067 C   0  0  0  0  0  0  0  0  0  0  0  0
   -2.0894    0.5671   -0.2584 H   0  0  0  0  0  0  0  0  0  0  0  0
   -1.4302   -0.2361    1.2066 H   0  0  0  0  0  0  0  0  0  0  0  0
    0.0014   -0.0020   -0.4102 C   0  0  0  0  0  0  0  0  0  0  0  0
    0.0012    0.0059   -1.5067 H   0  0  0  0  0  0  0  0  0  0  0  0
    0.5117    1.3566    0.1051 C   0  0  0  0  0  0  0  0  0  0  0  0
    1.5316    1.5307   -0.2584 H   0  0  0  0  0  0  0  0  0  0  0  0
   -0.1527    2.1649   -0.2624 H   0  0  0  0  0  0  0  0  0  0  0  0
    0.5117    1.3554    1.2141 H   0  0  0  0  0  0  0  0  0  0  0  0
    0.9212   -1.1212    0.1054 C   0  0  0  0  0  0  0  0  0  0  0  0
    1.9412   -0.9470   -0.2580 H   0  0  0  0  0  0  0  0  0  0  0  0
    0.9247   -1.1202    1.2053 H   0  0  0  0  0  0  0  0  0  0  0  0
    0.5567   -2.0915   -0.2626 H   0  0  0  0  0  0  0  0  0  0  0  0
  1  2  1  0  0  0  0
  2  4  1  0  0  0  0
  3  2  1  0  0  0  0
  5  7  1  0  0  0  0
  5 11  1  0  0  0  0
  5  2  1  0  0  0  0
  6  5  1  0  0  0  0
  7 10  1  0  0  0  0
  8  7  1  0  0  0  0
  9  7  1  0  0  0  0
 11 13  1  0  0  0  0
 12 11  1  0  0  0  0
 14 11  1  0  0  0  0
M  END
$$$$
CH2tBu.log
 OpenBabel03172610333D

 17 16  0  0  0  0  0  0  0  0999 V2000
   -1.9062    1.0391    0.0000 H   0  0  0  0  0  0  0  0  0  0  0  0
   -1.5411    0.0015    0.0000 C   0  0  0  0  0  0  0  0  0  0  0  0
   -1.9052   -0.5189    0.8980 H   0  0  0  0  0  0  0  0  0  0  0  0
   -1.9052   -0.5189   -0.8980 H   0  0  0  0  0  0  0  0  0  0  0  0
    0.0022    0.0038   -0.0000 C   0  0  0  0  0  0  0  0  0  0  0  0
    0.5133    0.7243    1.2587 C   0  0  0  0  0  0  0  0  0  0  0  0
    1.6100    0.7179    1.2587 H   0  0  0  0  0  0  0  0  0  0  0  0
    0.1483    1.7619    1.2587 H   0  0  0  0  0  0  0  0  0  0  0  0
    0.1492    0.2039    2.1567 H   0  0  0  0  0  0  0  0  0  0  0  0
    0.5133   -1.4489    0.0000 C   0  0  0  0  0  0  0  0  0  0  0  0
    1.6100   -1.4553   -0.0000 H   0  0  0  0  0  0  0  0  0  0  0  0
    0.1425   -1.9716    0.9051 H   0  0  0  0  0  0  0  0  0  0  0  0
    0.1425   -1.9716   -0.9051 H   0  0  0  0  0  0  0  0  0  0  0  0
    0.5133    0.7243   -1.2587 C   0  0  0  0  0  0  0  0  0  0  0  0
    1.6100    0.7179   -1.2587 H   0  0  0  0  0  0  0  0  0  0  0  0
    0.1492    0.2039   -2.1567 H   0  0  0  0  0  0  0  0  0  0  0  0
    0.1483    1.7619   -1.2587 H   0  0  0  0  0  0  0  0  0  0  0  0
  1  2  1  0  0  0  0
  2  5  1  0  0  0  0
  2  3  1  0  0  0  0
  4  2  1  0  0  0  0
  5  6  1  0  0  0  0
  6  7  1  0  0  0  0
  6  8  1  0  0  0  0
  6  9  1  0  0  0  0
 10 11  1  0  0  0  0
 10  5  1  0  0  0  0
 10 12  1  0  0  0  0
 13 10  1  0  0  0  0
 14  5  1  0  0  0  0
 15 14  1  0  0  0  0
 16 14  1  0  0  0  0
 17 14  1  0  0  0  0
M  END
$$$$
CHEt2.log
 OpenBabel03172610333D

 17 16  0  0  0  0  0  0  0  0999 V2000
    0.4867    1.7331   -0.7563 H   0  0  0  0  0  0  0  0  0  0  0  0
   -0.0014    1.0985   -0.0020 C   0  0  0  0  0  0  0  0  0  0  0  0
   -0.4910    1.7282    0.7506 H   0  0  0  0  0  0  0  0  0  0  0  0
   -1.0562    0.2129   -0.6859 C   0  0  0  0  0  0  0  0  0  0  0  0
   -1.8125    0.8407   -1.1722 H   0  0  0  0  0  0  0  0  0  0  0  0
   -0.5665   -0.4341   -1.4385 H   0  0  0  0  0  0  0  0  0  0  0  0
   -1.7395   -0.6756    0.3701 C   0  0  0  0  0  0  0  0  0  0  0  0
   -2.4862   -1.3180   -0.1140 H   0  0  0  0  0  0  0  0  0  0  0  0
   -0.9795   -1.3149    0.8636 H   0  0  0  0  0  0  0  0  0  0  0  0
   -2.2292   -0.0458    1.1226 H   0  0  0  0  0  0  0  0  0  0  0  0
    1.0555    0.2173    0.6843 C   0  0  0  0  0  0  0  0  0  0  0  0
    1.8059    0.8482    1.1757 H   0  0  0  0  0  0  0  0  0  0  0  0
    0.5674   -0.4173    1.4386 H   0  0  0  0  0  0  0  0  0  0  0  0
    1.7410   -0.6782   -0.3693 C   0  0  0  0  0  0  0  0  0  0  0  0
    2.4929   -1.3117    0.1239 H   0  0  0  0  0  0  0  0  0  0  0  0
    0.9862   -1.3148   -0.8538 H   0  0  0  0  0  0  0  0  0  0  0  0
    2.2292   -0.0435   -1.1235 H   0  0  0  0  0  0  0  0  0  0  0  0
  1  2  1  0  0  0  0
  2 11  1  0  0  0  0
  2  3  1  0  0  0  0
  4  2  1  0  0  0  0
  4  7  1  0  0  0  0
  5  4  1  0  0  0  0
  6  4  1  0  0  0  0
  7  9  1  0  0  0  0
  7 10  1  0  0  0  0
  8  7  1  0  0  0  0
 11 12  1  0  0  0  0
 11 13  1  0  0  0  0
 14 15  1  0  0  0  0
 14 11  1  0  0  0  0
 16 14  1  0  0  0  0
 17 14  1  0  0  0  0
M  END
$$$$
cHex.log
 OpenBabel03172610333D

 18 18  0  0  0  0  0  0  0  0999 V2000
   -1.4566    2.0178   -0.1071 H   0  0  0  0  0  0  0  0  0  0  0  0
   -0.8489    1.1770    0.2588 C   0  0  0  0  0  0  0  0  0  0  0  0
   -0.8482    1.1723    1.3587 H   0  0  0  0  0  0  0  0  0  0  0  0
   -1.4476   -0.1480   -0.2586 C   0  0  0  0  0  0  0  0  0  0  0  0
   -2.4740   -0.2577    0.1114 H   0  0  0  0  0  0  0  0  0  0  0  0
   -1.4428   -0.1509   -1.3552 H   0  0  0  0  0  0  0  0  0  0  0  0
   -0.5969   -1.3251    0.2537 C   0  0  0  0  0  0  0  0  0  0  0  0
   -0.5960   -1.3258    1.3627 H   0  0  0  0  0  0  0  0  0  0  0  0
   -1.0165   -2.2708   -0.1102 H   0  0  0  0  0  0  0  0  0  0  0  0
    0.8574   -1.1755   -0.2542 C   0  0  0  0  0  0  0  0  0  0  0  0
    1.4650   -2.0163    0.1117 H   0  0  0  0  0  0  0  0  0  0  0  0
    0.8483   -1.1757   -1.3517 H   0  0  0  0  0  0  0  0  0  0  0  0
    1.4419    0.1481    0.2532 C   0  0  0  0  0  0  0  0  0  0  0  0
    1.4429    0.1474    1.3622 H   0  0  0  0  0  0  0  0  0  0  0  0
    2.4741    0.2543   -0.1044 H   0  0  0  0  0  0  0  0  0  0  0  0
    0.5913    1.3252   -0.2591 C   0  0  0  0  0  0  0  0  0  0  0  0
    1.0249    2.2723    0.1148 H   0  0  0  0  0  0  0  0  0  0  0  0
    0.5961    1.3224   -1.3557 H   0  0  0  0  0  0  0  0  0  0  0  0
  1  2  1  0  0  0  0
  2  3  1  0  0  0  0
  4  5  1  0  0  0  0
  4  7  1  0  0  0  0
  4  2  1  0  0  0  0
  6  4  1  0  0  0  0
  7  8  1  0  0  0  0
  9  7  1  0  0  0  0
 10 11  1  0  0  0  0
 10 13  1  0  0  0  0
 10  7  1  0  0  0  0
 12 10  1  0  0  0  0
 13 14  1  0  0  0  0
 15 13  1  0  0  0  0
 16 17  1  0  0  0  0
 16 13  1  0  0  0  0
 16  2  1  0  0  0  0
 18 16  1  0  0  0  0
M  END
$$$$
CHiPr2.log
 OpenBabel03172610333D

 23 22  0  0  0  0  0  0  0  0999 V2000
    0.1744   -1.3972   -0.8858 H   0  0  0  0  0  0  0  0  0  0  0  0
   -0.0005   -0.7648   -0.0029 C   0  0  0  0  0  0  0  0  0  0  0  0
   -0.1759   -1.3968    0.8761 H   0  0  0  0  0  0  0  0  0  0  0  0
    1.2344    0.1172    0.2453 C   0  0  0  0  0  0  0  0  0  0  0  0
    1.0595    0.7496    1.1282 H   0  0  0  0  0  0  0  0  0  0  0  0
    2.4685   -0.7674    0.4880 C   0  0  0  0  0  0  0  0  0  0  0  0
    3.3488   -0.1333    0.6691 H   0  0  0  0  0  0  0  0  0  0  0  0
    2.2853   -1.4052    1.3695 H   0  0  0  0  0  0  0  0  0  0  0  0
    2.6433   -1.3998   -0.3949 H   0  0  0  0  0  0  0  0  0  0  0  0
    1.4800    1.0159   -0.9851 C   0  0  0  0  0  0  0  0  0  0  0  0
    2.3602    1.6500   -0.8040 H   0  0  0  0  0  0  0  0  0  0  0  0
    1.6548    0.3835   -1.8680 H   0  0  0  0  0  0  0  0  0  0  0  0
    0.5987    1.6519   -1.1542 H   0  0  0  0  0  0  0  0  0  0  0  0
   -1.2346    0.1199   -0.2455 C   0  0  0  0  0  0  0  0  0  0  0  0
   -1.0592    0.7692   -1.1244 H   0  0  0  0  0  0  0  0  0  0  0  0
   -2.4695   -0.7621   -0.4937 C   0  0  0  0  0  0  0  0  0  0  0  0
   -3.3508   -0.1261   -0.6628 H   0  0  0  0  0  0  0  0  0  0  0  0
   -2.2946   -1.3945   -1.3766 H   0  0  0  0  0  0  0  0  0  0  0  0
   -2.6387   -1.3999    0.3906 H   0  0  0  0  0  0  0  0  0  0  0  0
   -1.4794    1.0052    0.9906 C   0  0  0  0  0  0  0  0  0  0  0  0
   -2.3529    1.6470    0.8188 H   0  0  0  0  0  0  0  0  0  0  0  0
   -1.6548    0.3732    1.8695 H   0  0  0  0  0  0  0  0  0  0  0  0
   -0.5914    1.6451    1.1690 H   0  0  0  0  0  0  0  0  0  0  0  0
  1  2  1  0  0  0  0
  2  4  1  0  0  0  0
  2  3  1  0  0  0  0
  4  6  1  0  0  0  0
  4  5  1  0  0  0  0
  6  7  1  0  0  0  0
  6  8  1  0  0  0  0
  9  6  1  0  0  0  0
 10 11  1  0  0  0  0
 10  4  1  0  0  0  0
 12 10  1  0  0  0  0
 13 10  1  0  0  0  0
 14  2  1  0  0  0  0
 14 20  1  0  0  0  0
 15 14  1  0  0  0  0
 16 14  1  0  0  0  0
 16 19  1  0  0  0  0
 17 16  1  0  0  0  0
 18 16  1  0  0  0  0
 20 23  1  0  0  0  0
 20 22  1  0  0  0  0
 21 20  1  0  0  0  0
M  END
$$$$
CHPr2.log
 OpenBabel03172610333D

 23 22  0  0  0  0  0  0  0  0999 V2000
    0.4200    2.1965   -0.7955 H   0  0  0  0  0  0  0  0  0  0  0  0
   -0.0004    1.5619   -0.0015 C   0  0  0  0  0  0  0  0  0  0  0  0
   -0.4212    2.1917    0.7916 H   0  0  0  0  0  0  0  0  0  0  0  0
   -1.1122    0.6778   -0.5903 C   0  0  0  0  0  0  0  0  0  0  0  0
   -1.9078    1.3066   -1.0077 H   0  0  0  0  0  0  0  0  0  0  0  0
   -0.6915    0.0307   -1.3834 H   0  0  0  0  0  0  0  0  0  0  0  0
   -1.7008   -0.2106    0.5214 C   0  0  0  0  0  0  0  0  0  0  0  0
   -0.9009   -0.8510    0.9457 H   0  0  0  0  0  0  0  0  0  0  0  0
   -2.1216    0.4191    1.3145 H   0  0  0  0  0  0  0  0  0  0  0  0
   -2.8083   -1.1063   -0.0605 C   0  0  0  0  0  0  0  0  0  0  0  0
   -3.2288   -1.7409    0.7336 H   0  0  0  0  0  0  0  0  0  0  0  0
   -3.6001   -0.4717   -0.4851 H   0  0  0  0  0  0  0  0  0  0  0  0
   -2.3919   -1.7418   -0.8605 H   0  0  0  0  0  0  0  0  0  0  0  0
    1.1120    0.6793    0.5886 C   0  0  0  0  0  0  0  0  0  0  0  0
    1.9034    1.3092    1.0122 H   0  0  0  0  0  0  0  0  0  0  0  0
    0.6916    0.0447    1.3826 H   0  0  0  0  0  0  0  0  0  0  0  0
    1.7011   -0.2162   -0.5218 C   0  0  0  0  0  0  0  0  0  0  0  0
    0.9059   -0.8518   -0.9383 H   0  0  0  0  0  0  0  0  0  0  0  0
    2.1215    0.4184   -1.3158 H   0  0  0  0  0  0  0  0  0  0  0  0
    2.8091   -1.1046    0.0614 C   0  0  0  0  0  0  0  0  0  0  0  0
    3.2260   -1.7401   -0.7245 H   0  0  0  0  0  0  0  0  0  0  0  0
    3.6048   -0.4690    0.4919 H   0  0  0  0  0  0  0  0  0  0  0  0
    2.3887   -1.7392    0.8554 H   0  0  0  0  0  0  0  0  0  0  0  0
  1  2  1  0  0  0  0
  2 14  1  0  0  0  0
  2  3  1  0  0  0  0
  4  2  1  0  0  0  0
  4  7  1  0  0  0  0
  5  4  1  0  0  0  0
  6  4  1  0  0  0  0
  7  8  1  0  0  0  0
  7  9  1  0  0  0  0
 10  7  1  0  0  0  0
 10 11  1  0  0  0  0
 12 10  1  0  0  0  0
 13 10  1  0  0  0  0
 14 15  1  0  0  0  0
 14 16  1  0  0  0  0
 17 20  1  0  0  0  0
 17 14  1  0  0  0  0
 18 17  1  0  0  0  0
 19 17  1  0  0  0  0
 20 22  1  0  0  0  0
 20 23  1  0  0  0  0
 21 20  1  0  0  0  0
M  END
$$$$
ethane
 OpenBabel03172610333D

  8  7  0  0  0  0  0  0  0  0999 V2000
    0.0000    0.0000    0.0000 H   0  0  0  0  0  0  0  0  0  0  0  0
    0.0000    0.0000   -1.1000 C   0  0  0  0  0  0  0  0  0  0  0  0
   -1.0000    0.2700   -1.4700 H   0  0  0  0  0  0  0  0  0  0  0  0
    0.2700   -1.0000   -1.4700 H   0  0  0  0  0  0  0  0  0  0  0  0
    1.0300    1.0300   -1.6100 C   0  0  0  0  0  0  0  0  0  0  0  0
    1.0300    1.0300   -2.7100 H   0  0  0  0  0  0  0  0  0  0  0  0
    2.0300    0.7600   -1.2500 H   0  0  0  0  0  0  0  0  0  0  0  0
    0.7600    2.0300   -1.2500 H   0  0  0  0  0  0  0  0  0  0  0  0
  2  1  1  0  0  0  0
  3  2  1  0  0  0  0
  4  2  1  0  0  0  0
  5  8  1  0  0  0  0
  5  7  1  0  0  0  0
  5  2  1  0  0  0  0
  6  5  1  0  0  0  0
M  END
$$$$
H.log
 OpenBabel03172610333D

  2  1  0  0  0  0  0  0  0  0999 V2000
    0.0000    0.0000    0.3300 H   0  0  0  0  0  0  0  0  0  0  0  0
    0.0000    0.0000   -0.3300 H   0  0  0  0  0  0  0  0  0  0  0  0
  2  1  1  0  0  0  0
M  END
$$$$
iPr.log
 OpenBabel03172610333D

 11 10  0  0  0  0  0  0  0  0999 V2000
   -0.8985    1.2482   -0.0000 H   0  0  0  0  0  0  0  0  0  0  0  0
   -0.0003    0.6131   -0.0000 C   0  0  0  0  0  0  0  0  0  0  0  0
    0.8978    1.2424   -0.0000 H   0  0  0  0  0  0  0  0  0  0  0  0
   -0.0003   -0.2702    1.2587 C   0  0  0  0  0  0  0  0  0  0  0  0
    0.8978   -0.9053    1.2587 H   0  0  0  0  0  0  0  0  0  0  0  0
    0.0038    0.3591    2.1567 H   0  0  0  0  0  0  0  0  0  0  0  0
   -0.8985   -0.9169    1.2587 H   0  0  0  0  0  0  0  0  0  0  0  0
   -0.0003   -0.2702   -1.2587 C   0  0  0  0  0  0  0  0  0  0  0  0
    0.8978   -0.9053   -1.2587 H   0  0  0  0  0  0  0  0  0  0  0  0
   -0.8985   -0.9169   -1.2587 H   0  0  0  0  0  0  0  0  0  0  0  0
    0.0038    0.3591   -2.1567 H   0  0  0  0  0  0  0  0  0  0  0  0
  1  2  1  0  0  0  0
  2  4  1  0  0  0  0
  3  2  1  0  0  0  0
  4  6  1  0  0  0  0
  5  4  1  0  0  0  0
  7  4  1  0  0  0  0
  8  2  1  0  0  0  0
  9  8  1  0  0  0  0
 10  8  1  0  0  0  0
 11  8  1  0  0  0  0
M  END
$$$$
me
 OpenBabel03172610333D

  5  4  0  0  0  0  0  0  0  0999 V2000
    0.0000    0.0000    0.0000 H   0  0  0  0  0  0  0  0  0  0  0  0
    0.0000    0.0000   -1.1000 C   0  0  0  0  0  0  0  0  0  0  0  0
    0.7300    0.7300   -1.4700 H   0  0  0  0  0  0  0  0  0  0  0  0
   -1.0000    0.2700   -1.4700 H   0  0  0  0  0  0  0  0  0  0  0  0
    0.2700   -1.0000   -1.4700 H   0  0  0  0  0  0  0  0  0  0  0  0
  2  1  1  0  0  0  0
  3  2  1  0  0  0  0
  4  2  1  0  0  0  0
  5  2  1  0  0  0  0
M  END
$$$$
nbu
 OpenBabel03172610333D

 14 13  0  0  0  0  0  0  0  0999 V2000
    0.0000    0.0000    0.0000 H   0  0  0  0  0  0  0  0  0  0  0  0
    0.0000    0.0000   -1.1000 C   0  0  0  0  0  0  0  0  0  0  0  0
   -1.0000    0.2700   -1.4700 H   0  0  0  0  0  0  0  0  0  0  0  0
    0.2700   -1.0000   -1.4700 H   0  0  0  0  0  0  0  0  0  0  0  0
    1.0300    1.0300   -1.6100 C   0  0  0  0  0  0  0  0  0  0  0  0
    2.0300    0.7600   -1.2500 H   0  0  0  0  0  0  0  0  0  0  0  0
    0.7600    2.0300   -1.2500 H   0  0  0  0  0  0  0  0  0  0  0  0
    1.0300    1.0300   -3.1500 C   0  0  0  0  0  0  0  0  0  0  0  0
    0.0200    1.3000   -3.5200 H   0  0  0  0  0  0  0  0  0  0  0  0
    1.3000    0.0200   -3.5200 H   0  0  0  0  0  0  0  0  0  0  0  0
    2.0500    2.0500   -3.6700 C   0  0  0  0  0  0  0  0  0  0  0  0
    2.0500    2.0500   -4.7700 H   0  0  0  0  0  0  0  0  0  0  0  0
    3.0600    1.7800   -3.3000 H   0  0  0  0  0  0  0  0  0  0  0  0
    1.7800    3.0600   -3.3000 H   0  0  0  0  0  0  0  0  0  0  0  0
  2  1  1  0  0  0  0
  3  2  1  0  0  0  0
  4  2  1  0  0  0  0
  5  7  1  0  0  0  0
  5  6  1  0  0  0  0
  5  2  1  0  0  0  0
  8  5  1  0  0  0  0
  9  8  1  0  0  0  0
 10  8  1  0  0  0  0
 11 14  1  0  0  0  0
 11 13  1  0  0  0  0
 11  8  1  0  0  0  0
 12 11  1  0  0  0  0
M  END
$$$$
nPr.log
 OpenBabel03172610333D

 11 10  0  0  0  0  0  0  0  0999 V2000
   -2.1558    0.3610   -0.0000 H   0  0  0  0  0  0  0  0  0  0  0  0
   -1.2583   -0.2750   -0.0000 C   0  0  0  0  0  0  0  0  0  0  0  0
   -1.2549   -0.9101    0.8980 H   0  0  0  0  0  0  0  0  0  0  0  0
   -1.2549   -0.9101   -0.8980 H   0  0  0  0  0  0  0  0  0  0  0  0
   -0.0000    0.6187   -0.0000 C   0  0  0  0  0  0  0  0  0  0  0  0
    0.0047    1.2480   -0.8980 H   0  0  0  0  0  0  0  0  0  0  0  0
    0.0047    1.2480    0.8980 H   0  0  0  0  0  0  0  0  0  0  0  0
    1.2565   -0.2717    0.0000 C   0  0  0  0  0  0  0  0  0  0  0  0
    2.1553    0.3567    0.0000 H   0  0  0  0  0  0  0  0  0  0  0  0
    1.2558   -0.9126    0.9051 H   0  0  0  0  0  0  0  0  0  0  0  0
    1.2558   -0.9126   -0.9051 H   0  0  0  0  0  0  0  0  0  0  0  0
  1  2  1  0  0  0  0
  2  3  1  0  0  0  0
  4  2  1  0  0  0  0
  5  2  1  0  0  0  0
  5  8  1  0  0  0  0
  5  7  1  0  0  0  0
  6  5  1  0  0  0  0
  8 10  1  0  0  0  0
  9  8  1  0  0  0  0
 11  8  1  0  0  0  0
M  END
$$$$
Ph.log
 OpenBabel03172610333D

 12 12  0  0  0  0  0  0  0  0999 V2000
   -2.1152    1.2164    0.0000 H   0  0  0  0  0  0  0  0  0  0  0  0
   -1.1958    0.6887    0.0000 C   0  0  0  0  0  0  0  0  0  0  0  0
    0.0010    1.3878   -0.0000 C   0  0  0  0  0  0  0  0  0  0  0  0
   -0.0081    2.4366    0.0000 H   0  0  0  0  0  0  0  0  0  0  0  0
    1.1908    0.6885   -0.0000 C   0  0  0  0  0  0  0  0  0  0  0  0
    2.1081    1.2219   -0.0000 H   0  0  0  0  0  0  0  0  0  0  0  0
    1.1979   -0.6852   -0.0000 C   0  0  0  0  0  0  0  0  0  0  0  0
    2.1172   -1.2129   -0.0000 H   0  0  0  0  0  0  0  0  0  0  0  0
    0.0010   -1.3843   -0.0000 C   0  0  0  0  0  0  0  0  0  0  0  0
    0.0101   -2.4331   -0.0000 H   0  0  0  0  0  0  0  0  0  0  0  0
   -1.1958   -0.6973    0.0000 C   0  0  0  0  0  0  0  0  0  0  0  0
   -2.1061   -1.2184    0.0000 H   0  0  0  0  0  0  0  0  0  0  0  0
  1  2  1  0  0  0  0
  2  3  2  0  0  0  0
  2 11  1  0  0  0  0
  3  4  1  0  0  0  0
  3  5  1  0  0  0  0
  5  6  1  0  0  0  0
  5  7  2  0  0  0  0
  7  8  1  0  0  0  0
  7  9  1  0  0  0  0
  9 10  1  0  0  0  0
  9 11  2  0  0  0  0
 11 12  1  0  0  0  0
M  END
$$$$
tBu.log
 OpenBabel03172610333D

 14 13  0  0  0  0  0  0  0  0999 V2000
    1.2315    0.8672   -0.0000 H   0  0  0  0  0  0  0  0  0  0  0  0
    0.3333    0.2321   -0.0000 C   0  0  0  0  0  0  0  0  0  0  0  0
   -0.9241    1.1270    0.0000 C   0  0  0  0  0  0  0  0  0  0  0  0
   -1.8222    0.4919    0.0000 H   0  0  0  0  0  0  0  0  0  0  0  0
   -0.9282    1.7563    0.8980 H   0  0  0  0  0  0  0  0  0  0  0  0
   -0.9282    1.7563   -0.8980 H   0  0  0  0  0  0  0  0  0  0  0  0
    0.3333   -0.6512   -1.2587 C   0  0  0  0  0  0  0  0  0  0  0  0
   -0.5648   -1.2863   -1.2587 H   0  0  0  0  0  0  0  0  0  0  0  0
    0.3292   -0.0219   -2.1567 H   0  0  0  0  0  0  0  0  0  0  0  0
    1.2315   -1.2978   -1.2587 H   0  0  0  0  0  0  0  0  0  0  0  0
    0.3333   -0.6512    1.2587 C   0  0  0  0  0  0  0  0  0  0  0  0
   -0.5648   -1.2863    1.2587 H   0  0  0  0  0  0  0  0  0  0  0  0
    1.2315   -1.2978    1.2587 H   0  0  0  0  0  0  0  0  0  0  0  0
    0.3292   -0.0219    2.1567 H   0  0  0  0  0  0  0  0  0  0  0  0
  1  2  1  0  0  0  0
  2 11  1  0  0  0  0
  3  2  1  0  0  0  0
  3  5  1  0  0  0  0
  4  3  1  0  0  0  0
  6  3  1  0  0  0  0
  7  2  1  0  0  0  0
  8  7  1  0  0  0  0
  9  7  1  0  0  0  0
 10  7  1  0  0  0  0
 11 12  1  0  0  0  0
 11 13  1  0  0  0  0
 11 14  1  0  0  0  0
M  END
$$$$
